commons/src/test/resources/SmallNodeBreaker/SmallNodeBreaker_fix_line_044bbe91.xiidm
<?xml version="1.0" encoding="UTF-8"?>
<iidm:network xmlns:iidm="http://www.powsybl.org/schema/iidm/1_2" id="urn:uuid:8168421c-c68f-3376-f16c-c2b7198bcb2e" caseDate="2030-01-02T09:00:00.000Z" forecastDistance="7993438" sourceFormat="CGMES">
    <iidm:property name="CGMESModelDetail" value="node-breaker"/>
    <iidm:substation id="_047c929a-c766-11e1-8775-005056c00008" name="Godrics Hollow" country="GB" geographicalTags="_0472a781-c766-11e1-8775-005056c00008">
        <iidm:voltageLevel id="_0460f448-c766-11e1-8775-005056c00008" name="GOD132KV" nominalV="132.0" topologyKind="NODE_BREAKER">
            <iidm:nodeBreakerTopology>
                <iidm:busbarSection id="_051f3e93-6c8c-4920-9e28-9c03d2ff896f" name="BUSBAR113" node="7"></iidm:busbarSection>
                <iidm:switch id="_d3bae873-3301-474a-9ea1-a6de9d01b48c" name="BREAKER305" kind="BREAKER" retained="false" open="false" node1="9" node2="10"></iidm:switch>
                <iidm:switch id="_52b45f46-02cb-4df1-b999-4fc8c8e0b881" name="BREAKER348" kind="BREAKER" retained="false" open="false" node1="11" node2="12"></iidm:switch>
                <iidm:switch id="_72d3faeb-d045-46e8-bdc6-eb73298a4b33" name="DISCONNECTOR609" kind="DISCONNECTOR" retained="false" open="false" node1="13" node2="14"></iidm:switch>
                <iidm:switch id="_08ea7222-ba4b-4c3a-87eb-12705ff532b8" name="DISCONNECTOR610" kind="DISCONNECTOR" retained="false" open="false" node1="15" node2="16"></iidm:switch>
                <iidm:switch id="_0b767b66-2d46-4494-89b4-8c9264286fbc" name="DISCONNECTOR695" kind="DISCONNECTOR" retained="false" open="false" node1="17" node2="18"></iidm:switch>
                <iidm:switch id="_8b910ec6-9c34-4764-a750-ce87ecc3bfa6" name="DISCONNECTOR696" kind="DISCONNECTOR" retained="false" open="false" node1="19" node2="20"></iidm:switch>
                <iidm:internalConnection node1="7" node2="0"/>
                <iidm:internalConnection node1="8" node2="0"/>
                <iidm:internalConnection node1="9" node2="1"/>
                <iidm:internalConnection node1="10" node2="2"/>
                <iidm:internalConnection node1="11" node2="4"/>
                <iidm:internalConnection node1="12" node2="5"/>
                <iidm:internalConnection node1="13" node2="0"/>
                <iidm:internalConnection node1="14" node2="1"/>
                <iidm:internalConnection node1="15" node2="2"/>
                <iidm:internalConnection node1="16" node2="3"/>
                <iidm:internalConnection node1="17" node2="0"/>
                <iidm:internalConnection node1="18" node2="4"/>
                <iidm:internalConnection node1="19" node2="5"/>
                <iidm:internalConnection node1="20" node2="6"/>
                <iidm:internalConnection node1="21" node2="3"/>
                <iidm:internalConnection node1="22" node2="6"/>
                <iidm:bus v="126.706635" angle="-16.31623" nodes="0,1,2,3,4,5,6,7,8,9,10,11,12,13,14,15,16,17,18,19,20,21,22"/>
            </iidm:nodeBreakerTopology>
            <iidm:load id="_047abdd7-c766-11e1-8775-005056c00008" name="Jay LD" loadType="UNDEFINED" p0="14.0" q0="8.0" node="8" p="14.0" q="8.0"></iidm:load>
        </iidm:voltageLevel>
    </iidm:substation>
    <iidm:substation id="_04819ba1-c766-11e1-8775-005056c00008" name="Nurmengard" country="GB" geographicalTags="_0472a781-c766-11e1-8775-005056c00008">
        <iidm:voltageLevel id="_0476c639-c766-11e1-8775-005056c00008" name="NUR132KV" nominalV="132.0" topologyKind="NODE_BREAKER">
            <iidm:nodeBreakerTopology>
                <iidm:busbarSection id="_d552ad9f-9d26-4be9-9b4f-8c0b8d5754c1" name="BUSBAR77" node="13"></iidm:busbarSection>
                <iidm:switch id="_5e04d136-e69b-4fc9-817b-c950c3f4c0b0" name="BREAKER112" kind="BREAKER" retained="false" open="false" node1="16" node2="17"></iidm:switch>
                <iidm:switch id="_7fb52d3f-1018-4d13-b1b7-7b2efd7976cf" name="BREAKER125" kind="BREAKER" retained="false" open="false" node1="18" node2="19"></iidm:switch>
                <iidm:switch id="_7816b35a-0bc6-4365-b648-f02d2dc074ba" name="BREAKER209" kind="BREAKER" retained="false" open="false" node1="20" node2="21"></iidm:switch>
                <iidm:switch id="_c3e687b8-f0ec-4675-8b21-04479642895a" name="BREAKER272" kind="BREAKER" retained="false" open="false" node1="22" node2="23"></iidm:switch>
                <iidm:switch id="_e5c75a23-c45f-459a-ac64-1b923dcff209" name="DISCONNECTOR223" kind="DISCONNECTOR" retained="false" open="false" node1="24" node2="25"></iidm:switch>
                <iidm:switch id="_7c58b380-4377-42f6-a094-de6788370580" name="DISCONNECTOR224" kind="DISCONNECTOR" retained="false" open="false" node1="26" node2="27"></iidm:switch>
                <iidm:switch id="_686b63e8-7869-4114-a068-b8e02f9fe6d3" name="DISCONNECTOR249" kind="DISCONNECTOR" retained="false" open="false" node1="28" node2="29"></iidm:switch>
                <iidm:switch id="_4e8276b6-5646-4cbd-8230-7a9080cde3c6" name="DISCONNECTOR250" kind="DISCONNECTOR" retained="false" open="false" node1="30" node2="31"></iidm:switch>
                <iidm:switch id="_664440d8-d34c-4c30-9a84-7722e7439d76" name="DISCONNECTOR417" kind="DISCONNECTOR" retained="false" open="false" node1="32" node2="33"></iidm:switch>
                <iidm:switch id="_a98a91a0-9684-4a3f-8d61-7f10ec2aa911" name="DISCONNECTOR418" kind="DISCONNECTOR" retained="false" open="false" node1="34" node2="35"></iidm:switch>
                <iidm:switch id="_bd184fa5-632f-405d-b5e8-9d39c8c12987" name="DISCONNECTOR543" kind="DISCONNECTOR" retained="false" open="false" node1="36" node2="37"></iidm:switch>
                <iidm:switch id="_9f877e64-73ed-48bd-937d-9eff226d3034" name="DISCONNECTOR544" kind="DISCONNECTOR" retained="false" open="false" node1="38" node2="39"></iidm:switch>
                <iidm:internalConnection node1="13" node2="0"/>
                <iidm:internalConnection node1="14" node2="0"/>
                <iidm:internalConnection node1="15" node2="0"/>
                <iidm:internalConnection node1="16" node2="1"/>
                <iidm:internalConnection node1="17" node2="2"/>
                <iidm:internalConnection node1="18" node2="4"/>
                <iidm:internalConnection node1="19" node2="5"/>
                <iidm:internalConnection node1="20" node2="7"/>
                <iidm:internalConnection node1="21" node2="8"/>
                <iidm:internalConnection node1="22" node2="10"/>
                <iidm:internalConnection node1="23" node2="11"/>
                <iidm:internalConnection node1="24" node2="0"/>
                <iidm:internalConnection node1="25" node2="1"/>
                <iidm:internalConnection node1="26" node2="2"/>
                <iidm:internalConnection node1="27" node2="3"/>
                <iidm:internalConnection node1="28" node2="0"/>
                <iidm:internalConnection node1="29" node2="4"/>
                <iidm:internalConnection node1="30" node2="5"/>
                <iidm:internalConnection node1="31" node2="6"/>
                <iidm:internalConnection node1="32" node2="0"/>
                <iidm:internalConnection node1="33" node2="7"/>
                <iidm:internalConnection node1="34" node2="8"/>
                <iidm:internalConnection node1="35" node2="9"/>
                <iidm:internalConnection node1="36" node2="0"/>
                <iidm:internalConnection node1="37" node2="10"/>
                <iidm:internalConnection node1="38" node2="11"/>
                <iidm:internalConnection node1="39" node2="12"/>
                <iidm:internalConnection node1="40" node2="3"/>
                <iidm:internalConnection node1="41" node2="6"/>
                <iidm:internalConnection node1="42" node2="9"/>
                <iidm:internalConnection node1="43" node2="12"/>
                <iidm:bus v="128.132538" angle="-14.5066376" nodes="0,1,2,3,4,5,6,7,8,9,10,11,12,13,14,15,16,17,18,19,20,21,22,23,24,25,26,27,28,29,30,31,32,33,34,35,36,37,38,39,40,41,42,43"/>
            </iidm:nodeBreakerTopology>
            <iidm:load id="_045b00d5-c766-11e1-8775-005056c00008" name="Madison LD" loadType="UNDEFINED" p0="62.0" q0="14.0" node="14" p="86.0" q="26.0"></iidm:load>
            <iidm:load id="_04689566-c766-11e1-8775-005056c00008" name="Madison NegG LD" loadType="UNDEFINED" p0="10.0" q0="0.0" node="15" p="17.0" q="0.0"></iidm:load>
        </iidm:voltageLevel>
    </iidm:substation>
    <iidm:substation id="_04542302-c766-11e1-8775-005056c00008" name="Gringotts" country="GB" geographicalTags="_0472a781-c766-11e1-8775-005056c00008">
        <iidm:voltageLevel id="_0450eeb4-c766-11e1-8775-005056c00008" name="GRI132KV" nominalV="132.0" topologyKind="NODE_BREAKER">
            <iidm:nodeBreakerTopology>
                <iidm:busbarSection id="_9880ca70-d663-4f0a-94e1-da0c2fbb8243" name="BUSBAR57" node="19"></iidm:busbarSection>
                <iidm:switch id="_2bdd5f9e-4eb4-4a94-b496-80df40d268a1" name="BREAKER73" kind="BREAKER" retained="false" open="false" node1="22" node2="23"></iidm:switch>
                <iidm:switch id="_c9a273aa-a2ad-43fd-8bc2-e30216c9ada1" name="BREAKER131" kind="BREAKER" retained="false" open="false" node1="24" node2="25"></iidm:switch>
                <iidm:switch id="_c6d97a16-b090-4237-9183-313bb669f035" name="BREAKER190" kind="BREAKER" retained="false" open="false" node1="26" node2="27"></iidm:switch>
                <iidm:switch id="_17894538-32b0-4e32-b55a-fdf567996e86" name="BREAKER295" kind="BREAKER" retained="false" open="false" node1="28" node2="29"></iidm:switch>
                <iidm:switch id="_8505b268-ea1c-470a-a3ad-2ec3fc5f0a48" name="BREAKER323" kind="BREAKER" retained="false" open="false" node1="30" node2="31"></iidm:switch>
                <iidm:switch id="_892cf503-f6bd-4c5b-9049-761ccf2613ea" name="BREAKER324" kind="BREAKER" retained="false" open="false" node1="32" node2="33"></iidm:switch>
                <iidm:switch id="_5f63bde9-5f0d-4946-8435-051a04715638" name="DISCONNECTOR145" kind="DISCONNECTOR" retained="false" open="false" node1="34" node2="35"></iidm:switch>
                <iidm:switch id="_28d9c1ac-25cf-429a-bfdf-9bcb55d282d9" name="DISCONNECTOR146" kind="DISCONNECTOR" retained="false" open="false" node1="36" node2="37"></iidm:switch>
                <iidm:switch id="_3bb3dd45-8079-4668-9fa4-e4a2434af1e8" name="DISCONNECTOR261" kind="DISCONNECTOR" retained="false" open="false" node1="38" node2="39"></iidm:switch>
                <iidm:switch id="_02047c0b-b5a4-4e0d-bae6-fc5437a55e74" name="DISCONNECTOR262" kind="DISCONNECTOR" retained="false" open="false" node1="40" node2="41"></iidm:switch>
                <iidm:switch id="_b1d94d68-b374-43a5-b632-4fe51cdbb70f" name="DISCONNECTOR379" kind="DISCONNECTOR" retained="false" open="false" node1="42" node2="43"></iidm:switch>
                <iidm:switch id="_cfcb1d69-20df-4a28-b861-0d38cd0a7dd0" name="DISCONNECTOR380" kind="DISCONNECTOR" retained="false" open="false" node1="44" node2="45"></iidm:switch>
                <iidm:switch id="_3ab36b37-e739-4383-825c-96be481b1e6b" name="DISCONNECTOR589" kind="DISCONNECTOR" retained="false" open="false" node1="46" node2="47"></iidm:switch>
                <iidm:switch id="_188d39c6-52ed-46ef-9eda-0bfa53337837" name="DISCONNECTOR590" kind="DISCONNECTOR" retained="false" open="false" node1="48" node2="49"></iidm:switch>
                <iidm:switch id="_d53c4ffe-ad99-4959-8cc2-17d70f755846" name="DISCONNECTOR645" kind="DISCONNECTOR" retained="false" open="false" node1="50" node2="51"></iidm:switch>
                <iidm:switch id="_4f775cc5-5e2b-415c-bef1-47847125cb95" name="DISCONNECTOR646" kind="DISCONNECTOR" retained="false" open="false" node1="52" node2="53"></iidm:switch>
                <iidm:switch id="_1695c443-b5e8-4a9a-8468-8fb32deae4b3" name="DISCONNECTOR647" kind="DISCONNECTOR" retained="false" open="false" node1="54" node2="55"></iidm:switch>
                <iidm:switch id="_0ab60b9a-5c16-4d58-aed4-3a75e8e77f44" name="DISCONNECTOR648" kind="DISCONNECTOR" retained="false" open="false" node1="56" node2="57"></iidm:switch>
                <iidm:internalConnection node1="19" node2="0"/>
                <iidm:internalConnection node1="20" node2="0"/>
                <iidm:internalConnection node1="21" node2="0"/>
                <iidm:internalConnection node1="22" node2="1"/>
                <iidm:internalConnection node1="23" node2="2"/>
                <iidm:internalConnection node1="24" node2="4"/>
                <iidm:internalConnection node1="25" node2="5"/>
                <iidm:internalConnection node1="26" node2="7"/>
                <iidm:internalConnection node1="27" node2="8"/>
                <iidm:internalConnection node1="28" node2="10"/>
                <iidm:internalConnection node1="29" node2="11"/>
                <iidm:internalConnection node1="30" node2="13"/>
                <iidm:internalConnection node1="31" node2="14"/>
                <iidm:internalConnection node1="32" node2="16"/>
                <iidm:internalConnection node1="33" node2="17"/>
                <iidm:internalConnection node1="34" node2="0"/>
                <iidm:internalConnection node1="35" node2="1"/>
                <iidm:internalConnection node1="36" node2="2"/>
                <iidm:internalConnection node1="37" node2="3"/>
                <iidm:internalConnection node1="38" node2="0"/>
                <iidm:internalConnection node1="39" node2="4"/>
                <iidm:internalConnection node1="40" node2="5"/>
                <iidm:internalConnection node1="41" node2="6"/>
                <iidm:internalConnection node1="42" node2="0"/>
                <iidm:internalConnection node1="43" node2="7"/>
                <iidm:internalConnection node1="44" node2="8"/>
                <iidm:internalConnection node1="45" node2="9"/>
                <iidm:internalConnection node1="46" node2="0"/>
                <iidm:internalConnection node1="47" node2="10"/>
                <iidm:internalConnection node1="48" node2="11"/>
                <iidm:internalConnection node1="49" node2="12"/>
                <iidm:internalConnection node1="50" node2="0"/>
                <iidm:internalConnection node1="51" node2="13"/>
                <iidm:internalConnection node1="52" node2="14"/>
                <iidm:internalConnection node1="53" node2="15"/>
                <iidm:internalConnection node1="54" node2="0"/>
                <iidm:internalConnection node1="55" node2="16"/>
                <iidm:internalConnection node1="56" node2="17"/>
                <iidm:internalConnection node1="57" node2="18"/>
                <iidm:internalConnection node1="58" node2="3"/>
                <iidm:internalConnection node1="59" node2="6"/>
                <iidm:internalConnection node1="60" node2="9"/>
                <iidm:internalConnection node1="61" node2="12"/>
                <iidm:internalConnection node1="62" node2="15"/>
                <iidm:internalConnection node1="63" node2="18"/>
                <iidm:bus v="126.06" angle="-14.6406355" nodes="0,1,2,3,4,5,6,7,8,9,10,11,12,13,14,15,16,17,18,19,20,21,22,23,24,25,26,27,28,29,30,31,32,33,34,35,36,37,38,39,40,41,42,43,44,45,46,47,48,49,50,51,52,53,54,55,56,57,58,59,60,61,62,63"/>
            </iidm:nodeBreakerTopology>
            <iidm:generator id="_046c3ee7-c766-11e1-8775-005056c00008" name="Torrey SM" energySource="THERMAL" minP="20.0" maxP="80.0" ratedS="100.0" voltageRegulatorOn="true" targetP="48.0" targetV="126.06" targetQ="0.0" node="21" p="-48.0" q="-0.0">
                <iidm:property name="CGMES.GeneratingUnit" value="_b97aee41-3115-4cfd-9071-b52fb44d0b66"/>
                <iidm:property name="CGMES.RegulatingControl" value="_5005c073-28d1-4a7d-b257-649dec43ec73"/>
                <iidm:minMaxReactiveLimits minQ="-30.0" maxQ="85.0"/>
            </iidm:generator>
            <iidm:load id="_044afb44-c766-11e1-8775-005056c00008" name="Torrey LD" loadType="UNDEFINED" p0="113.0" q0="32.0" node="20" p="113.0" q="32.0"></iidm:load>
        </iidm:voltageLevel>
    </iidm:substation>
    <iidm:substation id="_045de701-c766-11e1-8775-005056c00008" name="Needlehole" country="GB" geographicalTags="_0472a781-c766-11e1-8775-005056c00008">
        <iidm:voltageLevel id="_04808a33-c766-11e1-8775-005056c00008" name="NEE132KV" nominalV="132.0" topologyKind="NODE_BREAKER">
            <iidm:nodeBreakerTopology>
                <iidm:busbarSection id="_1a103f43-1592-4813-b11d-3082a975fec7" name="BUSBAR98" node="7"></iidm:busbarSection>
                <iidm:switch id="_6c011c99-f119-4f82-b7d6-732603cc3ce9" name="BREAKER204" kind="BREAKER" retained="false" open="false" node1="9" node2="10"></iidm:switch>
                <iidm:switch id="_0dd55b4a-4b54-4211-a3fc-c5b584d883b7" name="BREAKER276" kind="BREAKER" retained="false" open="false" node1="11" node2="12"></iidm:switch>
                <iidm:switch id="_c8bba3ac-051f-46dc-aa68-e8ba95038bbd" name="DISCONNECTOR407" kind="DISCONNECTOR" retained="false" open="false" node1="13" node2="14"></iidm:switch>
                <iidm:switch id="_23185b14-d92b-4c1d-869a-4f7e983c1dcb" name="DISCONNECTOR408" kind="DISCONNECTOR" retained="false" open="false" node1="15" node2="16"></iidm:switch>
                <iidm:switch id="_ee308cec-83ec-4314-a12c-882cbaff77d1" name="DISCONNECTOR551" kind="DISCONNECTOR" retained="false" open="false" node1="17" node2="18"></iidm:switch>
                <iidm:switch id="_960eca8f-ff93-4cfc-83ad-cb1d931c170f" name="DISCONNECTOR552" kind="DISCONNECTOR" retained="false" open="false" node1="19" node2="20"></iidm:switch>
                <iidm:internalConnection node1="7" node2="0"/>
                <iidm:internalConnection node1="8" node2="0"/>
                <iidm:internalConnection node1="9" node2="1"/>
                <iidm:internalConnection node1="10" node2="2"/>
                <iidm:internalConnection node1="11" node2="4"/>
                <iidm:internalConnection node1="12" node2="5"/>
                <iidm:internalConnection node1="13" node2="0"/>
                <iidm:internalConnection node1="14" node2="1"/>
                <iidm:internalConnection node1="15" node2="2"/>
                <iidm:internalConnection node1="16" node2="3"/>
                <iidm:internalConnection node1="17" node2="0"/>
                <iidm:internalConnection node1="18" node2="4"/>
                <iidm:internalConnection node1="19" node2="5"/>
                <iidm:internalConnection node1="20" node2="6"/>
                <iidm:internalConnection node1="21" node2="3"/>
                <iidm:internalConnection node1="22" node2="6"/>
                <iidm:bus v="123.719063" angle="-8.168152" nodes="0,1,2,3,4,5,6,7,8,9,10,11,12,13,14,15,16,17,18,19,20,21,22"/>
            </iidm:nodeBreakerTopology>
            <iidm:load id="_04481515-c766-11e1-8775-005056c00008" name="Darrah LD" loadType="UNDEFINED" p0="68.0" q0="36.0" node="8" p="68.0" q="36.0"></iidm:load>
        </iidm:voltageLevel>
    </iidm:substation>
    <iidm:substation id="_0472f5a8-c766-11e1-8775-005056c00008" name="Dale" country="GB" geographicalTags="_0472a781-c766-11e1-8775-005056c00008">
        <iidm:voltageLevel id="_0467d214-c766-11e1-8775-005056c00008" name="DAL132KV" nominalV="132.0" topologyKind="NODE_BREAKER">
            <iidm:nodeBreakerTopology>
                <iidm:busbarSection id="_550c159d-fa3a-4722-9577-8ec61641ff87" name="BUSBAR16" node="7"></iidm:busbarSection>
                <iidm:switch id="_ca87e586-22ff-4aca-8890-b2e43e3f7cc4" name="BREAKER18" kind="BREAKER" retained="false" open="false" node1="9" node2="10"></iidm:switch>
                <iidm:switch id="_9814c0cc-478a-44e2-8b25-bf6876298f83" name="BREAKER147" kind="BREAKER" retained="false" open="false" node1="11" node2="12"></iidm:switch>
                <iidm:switch id="_6226a89a-423f-4934-8c8b-8042772bcc1f" name="DISCONNECTOR35" kind="DISCONNECTOR" retained="false" open="false" node1="13" node2="14"></iidm:switch>
                <iidm:switch id="_41a3394f-16e1-4dbf-8f25-67871728e16f" name="DISCONNECTOR36" kind="DISCONNECTOR" retained="false" open="false" node1="15" node2="16"></iidm:switch>
                <iidm:switch id="_654b17e2-5021-4777-afbe-30a6354fec93" name="DISCONNECTOR293" kind="DISCONNECTOR" retained="false" open="false" node1="17" node2="18"></iidm:switch>
                <iidm:switch id="_1c2f1a4b-a975-4064-b6b6-8885527580bd" name="DISCONNECTOR294" kind="DISCONNECTOR" retained="false" open="false" node1="19" node2="20"></iidm:switch>
                <iidm:internalConnection node1="7" node2="0"/>
                <iidm:internalConnection node1="8" node2="0"/>
                <iidm:internalConnection node1="9" node2="1"/>
                <iidm:internalConnection node1="10" node2="2"/>
                <iidm:internalConnection node1="11" node2="4"/>
                <iidm:internalConnection node1="12" node2="5"/>
                <iidm:internalConnection node1="13" node2="0"/>
                <iidm:internalConnection node1="14" node2="1"/>
                <iidm:internalConnection node1="15" node2="2"/>
                <iidm:internalConnection node1="16" node2="3"/>
                <iidm:internalConnection node1="17" node2="0"/>
                <iidm:internalConnection node1="18" node2="4"/>
                <iidm:internalConnection node1="19" node2="5"/>
                <iidm:internalConnection node1="20" node2="6"/>
                <iidm:internalConnection node1="21" node2="3"/>
                <iidm:internalConnection node1="22" node2="6"/>
                <iidm:bus v="130.725067" angle="2.296253" nodes="0,1,2,3,4,5,6,7,8,9,10,11,12,13,14,15,16,17,18,19,20,21,22"/>
            </iidm:nodeBreakerTopology>
            <iidm:load id="_044c0cb3-c766-11e1-8775-005056c00008" name="Smythe LD" loadType="UNDEFINED" p0="5.0" q0="3.0" node="8" p="5.0" q="3.0"></iidm:load>
        </iidm:voltageLevel>
    </iidm:substation>
    <iidm:substation id="_047a48a3-c766-11e1-8775-005056c00008" name="Hogsmeade" country="GB" geographicalTags="_0472a781-c766-11e1-8775-005056c00008">
        <iidm:voltageLevel id="_047e675c-c766-11e1-8775-005056c00008" name="HOG132KV" nominalV="132.0" topologyKind="NODE_BREAKER">
            <iidm:nodeBreakerTopology>
                <iidm:busbarSection id="_71c969f4-45b1-48c6-9ad4-a4690b9a247e" name="BUSBAR49" node="19"></iidm:busbarSection>
                <iidm:switch id="_b303d7a3-d0ce-42a9-865c-e7ad23a57a25" name="BREAKER63" kind="BREAKER" retained="false" open="false" node1="21" node2="22"></iidm:switch>
                <iidm:switch id="_01585dc4-5b1b-441d-88c8-0d9b2bc14422" name="BREAKER191" kind="BREAKER" retained="false" open="false" node1="23" node2="24"></iidm:switch>
                <iidm:switch id="_b6a8ba67-205c-441d-acd8-1f93c35ee58c" name="BREAKER246" kind="BREAKER" retained="false" open="false" node1="25" node2="26"></iidm:switch>
                <iidm:switch id="_77fd2607-81fb-4b8e-b17d-eacc5acd86a5" name="BREAKER299" kind="BREAKER" retained="false" open="false" node1="27" node2="28"></iidm:switch>
                <iidm:switch id="_a21907f4-4959-4167-b1d4-965390148ce8" name="BREAKER330" kind="BREAKER" retained="false" open="false" node1="29" node2="30"></iidm:switch>
                <iidm:switch id="_1f7a172d-659b-492a-b105-aee34d672c41" name="BREAKER342" kind="BREAKER" retained="false" open="false" node1="31" node2="32"></iidm:switch>
                <iidm:switch id="_ca7912ea-b086-4ec1-a0bf-5262eaf87055" name="DISCONNECTOR125" kind="DISCONNECTOR" retained="false" open="false" node1="33" node2="34"></iidm:switch>
                <iidm:switch id="_1960244c-ad57-4032-bc9b-0f5f74a438d4" name="DISCONNECTOR126" kind="DISCONNECTOR" retained="false" open="false" node1="35" node2="36"></iidm:switch>
                <iidm:switch id="_c3755bd0-db6b-45a6-9294-f782e349ae93" name="DISCONNECTOR381" kind="DISCONNECTOR" retained="false" open="false" node1="37" node2="38"></iidm:switch>
                <iidm:switch id="_069f808d-659f-477c-8cec-358cceb37a5b" name="DISCONNECTOR382" kind="DISCONNECTOR" retained="false" open="false" node1="39" node2="40"></iidm:switch>
                <iidm:switch id="_b431c2c6-270d-4ccb-af35-24dbaeb4a855" name="DISCONNECTOR491" kind="DISCONNECTOR" retained="false" open="false" node1="41" node2="42"></iidm:switch>
                <iidm:switch id="_34e995c4-5bcf-4fd4-8f58-770cfba613a9" name="DISCONNECTOR492" kind="DISCONNECTOR" retained="false" open="false" node1="43" node2="44"></iidm:switch>
                <iidm:switch id="_7a38a528-1737-43c0-80f1-89b8379a7b7e" name="DISCONNECTOR597" kind="DISCONNECTOR" retained="false" open="false" node1="45" node2="46"></iidm:switch>
                <iidm:switch id="_d1c171c3-744e-48e6-bfc1-c2209e07ef89" name="DISCONNECTOR598" kind="DISCONNECTOR" retained="false" open="false" node1="47" node2="48"></iidm:switch>
                <iidm:switch id="_af75250a-8abf-4e72-ac65-6d9504aef741" name="DISCONNECTOR659" kind="DISCONNECTOR" retained="false" open="false" node1="49" node2="50"></iidm:switch>
                <iidm:switch id="_1e93acc1-f58c-4097-a7f3-57f3d113fd2f" name="DISCONNECTOR660" kind="DISCONNECTOR" retained="false" open="false" node1="51" node2="52"></iidm:switch>
                <iidm:switch id="_7b819b27-2e80-41cb-a780-383a59f88f9b" name="DISCONNECTOR683" kind="DISCONNECTOR" retained="false" open="false" node1="53" node2="54"></iidm:switch>
                <iidm:switch id="_3eee23d0-3b77-405c-9be3-d564dee83687" name="DISCONNECTOR684" kind="DISCONNECTOR" retained="false" open="false" node1="55" node2="56"></iidm:switch>
                <iidm:internalConnection node1="19" node2="0"/>
                <iidm:internalConnection node1="20" node2="0"/>
                <iidm:internalConnection node1="21" node2="1"/>
                <iidm:internalConnection node1="22" node2="2"/>
                <iidm:internalConnection node1="23" node2="4"/>
                <iidm:internalConnection node1="24" node2="5"/>
                <iidm:internalConnection node1="25" node2="7"/>
                <iidm:internalConnection node1="26" node2="8"/>
                <iidm:internalConnection node1="27" node2="10"/>
                <iidm:internalConnection node1="28" node2="11"/>
                <iidm:internalConnection node1="29" node2="13"/>
                <iidm:internalConnection node1="30" node2="14"/>
                <iidm:internalConnection node1="31" node2="16"/>
                <iidm:internalConnection node1="32" node2="17"/>
                <iidm:internalConnection node1="33" node2="0"/>
                <iidm:internalConnection node1="34" node2="1"/>
                <iidm:internalConnection node1="35" node2="2"/>
                <iidm:internalConnection node1="36" node2="3"/>
                <iidm:internalConnection node1="37" node2="0"/>
                <iidm:internalConnection node1="38" node2="4"/>
                <iidm:internalConnection node1="39" node2="5"/>
                <iidm:internalConnection node1="40" node2="6"/>
                <iidm:internalConnection node1="41" node2="0"/>
                <iidm:internalConnection node1="42" node2="7"/>
                <iidm:internalConnection node1="43" node2="8"/>
                <iidm:internalConnection node1="44" node2="9"/>
                <iidm:internalConnection node1="45" node2="0"/>
                <iidm:internalConnection node1="46" node2="10"/>
                <iidm:internalConnection node1="47" node2="11"/>
                <iidm:internalConnection node1="48" node2="12"/>
                <iidm:internalConnection node1="49" node2="0"/>
                <iidm:internalConnection node1="50" node2="13"/>
                <iidm:internalConnection node1="51" node2="14"/>
                <iidm:internalConnection node1="52" node2="15"/>
                <iidm:internalConnection node1="53" node2="0"/>
                <iidm:internalConnection node1="54" node2="16"/>
                <iidm:internalConnection node1="55" node2="17"/>
                <iidm:internalConnection node1="56" node2="18"/>
                <iidm:internalConnection node1="57" node2="3"/>
                <iidm:internalConnection node1="58" node2="6"/>
                <iidm:internalConnection node1="59" node2="9"/>
                <iidm:internalConnection node1="60" node2="12"/>
                <iidm:internalConnection node1="61" node2="15"/>
                <iidm:internalConnection node1="62" node2="18"/>
                <iidm:bus v="125.9138" angle="-14.74322" nodes="0,1,2,3,4,5,6,7,8,9,10,11,12,13,14,15,16,17,18,19,20,21,22,23,24,25,26,27,28,29,30,31,32,33,34,35,36,37,38,39,40,41,42,43,44,45,46,47,48,49,50,51,52,53,54,55,56,57,58,59,60,61,62"/>
            </iidm:nodeBreakerTopology>
            <iidm:load id="_0450a093-c766-11e1-8775-005056c00008" name="Sunnysde LD" loadType="UNDEFINED" p0="84.0" q0="18.0" node="20" p="84.0" q="18.0"></iidm:load>
        </iidm:voltageLevel>
    </iidm:substation>
    <iidm:substation id="_046f4c23-c766-11e1-8775-005056c00008" name="Barad-dûr" country="GB" geographicalTags="_0472a781-c766-11e1-8775-005056c00008">
        <iidm:voltageLevel id="_047dcb11-c766-11e1-8775-005056c00008" name="BAR132KV" nominalV="132.0" topologyKind="NODE_BREAKER">
            <iidm:nodeBreakerTopology>
                <iidm:busbarSection id="_def9253e-30f9-49d0-b64e-3af97ccf6532" name="BUSBAR69" node="7"></iidm:busbarSection>
                <iidm:switch id="_c698a599-0956-4a95-922b-54c8534b2907" name="BREAKER89" kind="BREAKER" retained="false" open="false" node1="10" node2="11"></iidm:switch>
                <iidm:switch id="_e19a5feb-76bc-4732-b4e5-156cca860509" name="BREAKER278" kind="BREAKER" retained="false" open="false" node1="12" node2="13"></iidm:switch>
                <iidm:switch id="_55cf826c-9037-47cd-8fad-5c46a0641969" name="DISCONNECTOR177" kind="DISCONNECTOR" retained="false" open="false" node1="14" node2="15"></iidm:switch>
                <iidm:switch id="_7a5a4ff7-3016-4b44-a489-462c160b8cae" name="DISCONNECTOR178" kind="DISCONNECTOR" retained="false" open="false" node1="16" node2="17"></iidm:switch>
                <iidm:switch id="_5ec88ddf-5dfe-4aca-b8c4-11da552604c9" name="DISCONNECTOR555" kind="DISCONNECTOR" retained="false" open="false" node1="18" node2="19"></iidm:switch>
                <iidm:switch id="_f4f74e66-42dc-4ffa-8020-ed02fce4ff29" name="DISCONNECTOR556" kind="DISCONNECTOR" retained="false" open="false" node1="20" node2="21"></iidm:switch>
                <iidm:internalConnection node1="7" node2="0"/>
                <iidm:internalConnection node1="8" node2="0"/>
                <iidm:internalConnection node1="9" node2="0"/>
                <iidm:internalConnection node1="10" node2="1"/>
                <iidm:internalConnection node1="11" node2="2"/>
                <iidm:internalConnection node1="12" node2="4"/>
                <iidm:internalConnection node1="13" node2="5"/>
                <iidm:internalConnection node1="14" node2="0"/>
                <iidm:internalConnection node1="15" node2="1"/>
                <iidm:internalConnection node1="16" node2="2"/>
                <iidm:internalConnection node1="17" node2="3"/>
                <iidm:internalConnection node1="18" node2="0"/>
                <iidm:internalConnection node1="19" node2="4"/>
                <iidm:internalConnection node1="20" node2="5"/>
                <iidm:internalConnection node1="21" node2="6"/>
                <iidm:internalConnection node1="22" node2="3"/>
                <iidm:internalConnection node1="23" node2="6"/>
                <iidm:bus v="126.403" angle="-8.388306" nodes="0,1,2,3,4,5,6,7,8,9,10,11,12,13,14,15,16,17,18,19,20,21,22,23"/>
            </iidm:nodeBreakerTopology>
            <iidm:load id="_044b2251-c766-11e1-8775-005056c00008" name="Bellefnt LD" loadType="UNDEFINED" p0="68.0" q0="27.0" node="8" p="68.0" q="27.0"></iidm:load>
            <iidm:shunt id="_0449e9d5-c766-11e1-8775-005056c00008" name="Bellefnt SC" bPerSection="1.378E-4" maximumSectionCount="10" currentSectionCount="5" voltageRegulatorOn="true" targetV="126.403" targetDeadband="1.0" node="9" q="-11.0086479">
                <iidm:property name="CGMES.RegulatingControl" value="_6cc38790-c6a6-4309-99f4-a3258e24e785"/>
            </iidm:shunt>
        </iidm:voltageLevel>
    </iidm:substation>
    <iidm:substation id="_047a6fb6-c766-11e1-8775-005056c00008" name="Waymoot" country="GB" geographicalTags="_0472a781-c766-11e1-8775-005056c00008">
        <iidm:voltageLevel id="_04740714-c766-11e1-8775-005056c00008" name="WAY132KV" nominalV="132.0" topologyKind="NODE_BREAKER">
            <iidm:nodeBreakerTopology>
                <iidm:busbarSection id="_76b9415d-7f50-4f09-98ec-78d44eff47ad" name="BUSBAR52" node="13"></iidm:busbarSection>
                <iidm:switch id="_352d6ede-7290-4d92-adff-5cf3b9cbfcd5" name="BREAKER67" kind="BREAKER" retained="false" open="false" node1="16" node2="17"></iidm:switch>
                <iidm:switch id="_7d0a8b23-49d8-4586-977b-4e28a89938a5" name="BREAKER126" kind="BREAKER" retained="false" open="false" node1="18" node2="19"></iidm:switch>
                <iidm:switch id="_031f35d6-f0fe-40b0-ac37-ed31a28287cf" name="BREAKER253" kind="BREAKER" retained="false" open="false" node1="20" node2="21"></iidm:switch>
                <iidm:switch id="_d57cc183-065d-483f-8c11-23bf9c039af2" name="BREAKER329" kind="BREAKER" retained="false" open="false" node1="22" node2="23"></iidm:switch>
                <iidm:switch id="_5b3a3e6a-4977-4873-937b-74ca4c71fb8e" name="DISCONNECTOR133" kind="DISCONNECTOR" retained="false" open="false" node1="24" node2="25"></iidm:switch>
                <iidm:switch id="_f45a1bd6-a7fe-4e5b-8906-24bdc9b22dfe" name="DISCONNECTOR134" kind="DISCONNECTOR" retained="false" open="false" node1="26" node2="27"></iidm:switch>
                <iidm:switch id="_5ae6b46f-fad8-4ba6-8dc1-884f57bb09fe" name="DISCONNECTOR251" kind="DISCONNECTOR" retained="false" open="false" node1="28" node2="29"></iidm:switch>
                <iidm:switch id="_64d1b57c-cd94-417c-a01c-2499eb29ce6e" name="DISCONNECTOR252" kind="DISCONNECTOR" retained="false" open="false" node1="30" node2="31"></iidm:switch>
                <iidm:switch id="_637d7d59-df66-4468-a68c-1131f4f040fb" name="DISCONNECTOR505" kind="DISCONNECTOR" retained="false" open="false" node1="32" node2="33"></iidm:switch>
                <iidm:switch id="_4cd781af-0f12-4962-b5d6-5b02859b1ad2" name="DISCONNECTOR506" kind="DISCONNECTOR" retained="false" open="false" node1="34" node2="35"></iidm:switch>
                <iidm:switch id="_ca5bb579-1068-4255-b1bc-b4089a0224e6" name="DISCONNECTOR657" kind="DISCONNECTOR" retained="false" open="false" node1="36" node2="37"></iidm:switch>
                <iidm:switch id="_7b656f7e-ae02-4495-966b-582755823f8d" name="DISCONNECTOR658" kind="DISCONNECTOR" retained="false" open="false" node1="38" node2="39"></iidm:switch>
                <iidm:internalConnection node1="13" node2="0"/>
                <iidm:internalConnection node1="14" node2="0"/>
                <iidm:internalConnection node1="15" node2="0"/>
                <iidm:internalConnection node1="16" node2="1"/>
                <iidm:internalConnection node1="17" node2="2"/>
                <iidm:internalConnection node1="18" node2="4"/>
                <iidm:internalConnection node1="19" node2="5"/>
                <iidm:internalConnection node1="20" node2="7"/>
                <iidm:internalConnection node1="21" node2="8"/>
                <iidm:internalConnection node1="22" node2="10"/>
                <iidm:internalConnection node1="23" node2="11"/>
                <iidm:internalConnection node1="24" node2="0"/>
                <iidm:internalConnection node1="25" node2="1"/>
                <iidm:internalConnection node1="26" node2="2"/>
                <iidm:internalConnection node1="27" node2="3"/>
                <iidm:internalConnection node1="28" node2="0"/>
                <iidm:internalConnection node1="29" node2="4"/>
                <iidm:internalConnection node1="30" node2="5"/>
                <iidm:internalConnection node1="31" node2="6"/>
                <iidm:internalConnection node1="32" node2="0"/>
                <iidm:internalConnection node1="33" node2="7"/>
                <iidm:internalConnection node1="34" node2="8"/>
                <iidm:internalConnection node1="35" node2="9"/>
                <iidm:internalConnection node1="36" node2="0"/>
                <iidm:internalConnection node1="37" node2="10"/>
                <iidm:internalConnection node1="38" node2="11"/>
                <iidm:internalConnection node1="39" node2="12"/>
                <iidm:internalConnection node1="40" node2="3"/>
                <iidm:internalConnection node1="41" node2="6"/>
                <iidm:internalConnection node1="42" node2="9"/>
                <iidm:internalConnection node1="43" node2="12"/>
                <iidm:bus v="126.066" angle="-11.6781759" nodes="0,1,2,3,4,5,6,7,8,9,10,11,12,13,14,15,16,17,18,19,20,21,22,23,24,25,26,27,28,29,30,31,32,33,34,35,36,37,38,39,40,41,42,43"/>
            </iidm:nodeBreakerTopology>
            <iidm:load id="_04682035-c766-11e1-8775-005056c00008" name="Fieldale LD" loadType="UNDEFINED" p0="39.0" q0="30.0" node="14" p="39.0" q="30.0"></iidm:load>
            <iidm:shunt id="_045c6067-c766-11e1-8775-005056c00008" name="Fieldale SC" bPerSection="6.88E-5" maximumSectionCount="10" currentSectionCount="5" voltageRegulatorOn="true" targetV="126.066" targetDeadband="1.0" node="15" q="-5.46706724">
                <iidm:property name="CGMES.RegulatingControl" value="_2d222dd9-7306-4afd-baa5-fd303b0eeb40"/>
            </iidm:shunt>
        </iidm:voltageLevel>
    </iidm:substation>
    <iidm:substation id="_0488eea9-c766-11e1-8775-005056c00008" name="Upbourn" country="GB" geographicalTags="_0472a781-c766-11e1-8775-005056c00008">
        <iidm:voltageLevel id="_047147f4-c766-11e1-8775-005056c00008" name="UPB132KV" nominalV="132.0" topologyKind="NODE_BREAKER">
            <iidm:nodeBreakerTopology>
                <iidm:busbarSection id="_2704bfa2-abe6-41d5-98b3-f5b8674925a7" name="BUSBAR21" node="16"></iidm:busbarSection>
                <iidm:switch id="_f77eb70b-7bd6-45e4-8526-2cb373a02774" name="BREAKER24" kind="BREAKER" retained="false" open="false" node1="19" node2="20"></iidm:switch>
                <iidm:switch id="_8da7b1fe-ceba-4132-8493-bba0958c2de0" name="BREAKER53" kind="BREAKER" retained="false" open="false" node1="21" node2="22"></iidm:switch>
                <iidm:switch id="_3aa81d20-1995-43b2-b529-b28fa872a835" name="BREAKER203" kind="BREAKER" retained="false" open="false" node1="23" node2="24"></iidm:switch>
                <iidm:switch id="_a0b5a589-e2b9-4a9a-9458-95e6277a5bbe" name="BREAKER347" kind="BREAKER" retained="false" open="false" node1="25" node2="26"></iidm:switch>
                <iidm:switch id="_dc94b309-d5b1-4477-be28-48cae7de1acd" name="BREAKER361" kind="BREAKER" retained="false" open="false" node1="27" node2="28"></iidm:switch>
                <iidm:switch id="_a5de68df-5d92-4d67-8d51-c742b3495abd" name="DISCONNECTOR47" kind="DISCONNECTOR" retained="false" open="false" node1="29" node2="30"></iidm:switch>
                <iidm:switch id="_815c01af-f12e-471b-b3de-eeabbb1bef02" name="DISCONNECTOR48" kind="DISCONNECTOR" retained="false" open="false" node1="31" node2="32"></iidm:switch>
                <iidm:switch id="_411b31da-c85b-499b-bf92-aca6e47fcdef" name="DISCONNECTOR105" kind="DISCONNECTOR" retained="false" open="false" node1="33" node2="34"></iidm:switch>
                <iidm:switch id="_dc3299a7-6fb7-4762-8a31-243b329fbb6d" name="DISCONNECTOR106" kind="DISCONNECTOR" retained="false" open="false" node1="35" node2="36"></iidm:switch>
                <iidm:switch id="_bfc87a24-bf17-480a-85b5-7eeff36cf2ce" name="DISCONNECTOR405" kind="DISCONNECTOR" retained="false" open="false" node1="37" node2="38"></iidm:switch>
                <iidm:switch id="_f5379f5e-6bc7-481a-85d5-894fbfa94508" name="DISCONNECTOR406" kind="DISCONNECTOR" retained="false" open="false" node1="39" node2="40"></iidm:switch>
                <iidm:switch id="_5958072f-e2f1-4e9f-ad06-4fac6c4cf5af" name="DISCONNECTOR693" kind="DISCONNECTOR" retained="false" open="false" node1="41" node2="42"></iidm:switch>
                <iidm:switch id="_27248742-2838-4e51-90a2-c6a4dbec4b67" name="DISCONNECTOR694" kind="DISCONNECTOR" retained="false" open="false" node1="43" node2="44"></iidm:switch>
                <iidm:switch id="_ddd830ab-f652-4393-84ff-e56c9e289d14" name="DISCONNECTOR721" kind="DISCONNECTOR" retained="false" open="false" node1="45" node2="46"></iidm:switch>
                <iidm:switch id="_33cd2c8f-cc37-4cf2-b41a-81d030a85a11" name="DISCONNECTOR722" kind="DISCONNECTOR" retained="false" open="false" node1="47" node2="48"></iidm:switch>
                <iidm:internalConnection node1="16" node2="0"/>
                <iidm:internalConnection node1="17" node2="0"/>
                <iidm:internalConnection node1="18" node2="0"/>
                <iidm:internalConnection node1="19" node2="1"/>
                <iidm:internalConnection node1="20" node2="2"/>
                <iidm:internalConnection node1="21" node2="4"/>
                <iidm:internalConnection node1="22" node2="5"/>
                <iidm:internalConnection node1="23" node2="7"/>
                <iidm:internalConnection node1="24" node2="8"/>
                <iidm:internalConnection node1="25" node2="10"/>
                <iidm:internalConnection node1="26" node2="11"/>
                <iidm:internalConnection node1="27" node2="13"/>
                <iidm:internalConnection node1="28" node2="14"/>
                <iidm:internalConnection node1="29" node2="0"/>
                <iidm:internalConnection node1="30" node2="1"/>
                <iidm:internalConnection node1="31" node2="2"/>
                <iidm:internalConnection node1="32" node2="3"/>
                <iidm:internalConnection node1="33" node2="0"/>
                <iidm:internalConnection node1="34" node2="4"/>
                <iidm:internalConnection node1="35" node2="5"/>
                <iidm:internalConnection node1="36" node2="6"/>
                <iidm:internalConnection node1="37" node2="0"/>
                <iidm:internalConnection node1="38" node2="7"/>
                <iidm:internalConnection node1="39" node2="8"/>
                <iidm:internalConnection node1="40" node2="9"/>
                <iidm:internalConnection node1="41" node2="0"/>
                <iidm:internalConnection node1="42" node2="10"/>
                <iidm:internalConnection node1="43" node2="11"/>
                <iidm:internalConnection node1="44" node2="12"/>
                <iidm:internalConnection node1="45" node2="0"/>
                <iidm:internalConnection node1="46" node2="13"/>
                <iidm:internalConnection node1="47" node2="14"/>
                <iidm:internalConnection node1="48" node2="15"/>
                <iidm:internalConnection node1="49" node2="3"/>
                <iidm:internalConnection node1="50" node2="6"/>
                <iidm:internalConnection node1="51" node2="9"/>
                <iidm:internalConnection node1="52" node2="12"/>
                <iidm:internalConnection node1="53" node2="15"/>
                <iidm:bus v="138.599991" angle="-2.44860148" nodes="0,1,2,3,4,5,6,7,8,9,10,11,12,13,14,15,16,17,18,19,20,21,22,23,24,25,26,27,28,29,30,31,32,33,34,35,36,37,38,39,40,41,42,43,44,45,46,47,48,49,50,51,52,53"/>
            </iidm:nodeBreakerTopology>
            <iidm:generator id="_047f0391-c766-11e1-8775-005056c00008" name="Muskngum SM" energySource="THERMAL" minP="200.0" maxP="400.0" ratedS="500.0" voltageRegulatorOn="true" targetP="392.0" targetV="138.599991" targetQ="0.0" node="18" p="-392.0" q="-0.0">
                <iidm:property name="CGMES.GeneratingUnit" value="_d9948603-709f-41dd-a0ff-2ebda091255a"/>
                <iidm:property name="CGMES.RegulatingControl" value="_23727856-fd9b-4124-a981-4e862148f3bb"/>
                <iidm:minMaxReactiveLimits minQ="-150.0" maxQ="450.0"/>
            </iidm:generator>
            <iidm:load id="_047e1936-c766-11e1-8775-005056c00008" name="Muskngum LD" loadType="UNDEFINED" p0="39.0" q0="18.0" node="17" p="39.0" q="18.0"></iidm:load>
        </iidm:voltageLevel>
        <iidm:voltageLevel id="_0463da78-c766-11e1-8775-005056c00008" name="UPB220KV" nominalV="220.0" topologyKind="NODE_BREAKER">
            <iidm:nodeBreakerTopology>
                <iidm:busbarSection id="_6bedede1-9566-46be-8279-5615f8e96c66" name="BUSBAR94" node="13"></iidm:busbarSection>
                <iidm:switch id="_e0fe1026-38a8-49a4-80d7-1621cbe27b9e" name="BREAKER189" kind="BREAKER" retained="false" open="false" node1="15" node2="16"></iidm:switch>
                <iidm:switch id="_680bb563-c2d3-42d4-a19d-33ea44e1df76" name="BREAKER269" kind="BREAKER" retained="false" open="false" node1="17" node2="18"></iidm:switch>
                <iidm:switch id="_977e7d25-b4ed-49d7-b8f7-0497631ffba8" name="BREAKER292" kind="BREAKER" retained="false" open="false" node1="19" node2="20"></iidm:switch>
                <iidm:switch id="_60e02f59-c22d-4cfd-8edc-a42b3628183b" name="BREAKER360" kind="BREAKER" retained="false" open="false" node1="21" node2="22"></iidm:switch>
                <iidm:switch id="_0c2d82ae-e0ae-4b5b-9cbe-702fb9bb5629" name="DISCONNECTOR377" kind="DISCONNECTOR" retained="false" open="false" node1="23" node2="24"></iidm:switch>
                <iidm:switch id="_7a275a51-e633-4dcc-aac7-f1c87bdb221a" name="DISCONNECTOR378" kind="DISCONNECTOR" retained="false" open="false" node1="25" node2="26"></iidm:switch>
                <iidm:switch id="_70ccd369-3e29-4221-8f6e-f65ff6ce3228" name="DISCONNECTOR537" kind="DISCONNECTOR" retained="false" open="false" node1="27" node2="28"></iidm:switch>
                <iidm:switch id="_1fc1aed6-2f82-4587-8614-b51aa8b87cbd" name="DISCONNECTOR538" kind="DISCONNECTOR" retained="false" open="false" node1="29" node2="30"></iidm:switch>
                <iidm:switch id="_c2df4485-bac9-42c6-9802-5ad78299b0b5" name="DISCONNECTOR583" kind="DISCONNECTOR" retained="false" open="false" node1="31" node2="32"></iidm:switch>
                <iidm:switch id="_8ff6a348-6359-4415-ad34-c7b5e35d2c1f" name="DISCONNECTOR584" kind="DISCONNECTOR" retained="false" open="false" node1="33" node2="34"></iidm:switch>
                <iidm:switch id="_4f8e09ed-6147-44d2-a632-f6317b6c4f56" name="DISCONNECTOR719" kind="DISCONNECTOR" retained="false" open="false" node1="35" node2="36"></iidm:switch>
                <iidm:switch id="_06aa9b56-6097-4780-8c23-c91bfc1ff46e" name="DISCONNECTOR720" kind="DISCONNECTOR" retained="false" open="false" node1="37" node2="38"></iidm:switch>
                <iidm:internalConnection node1="13" node2="0"/>
                <iidm:internalConnection node1="14" node2="0"/>
                <iidm:internalConnection node1="15" node2="1"/>
                <iidm:internalConnection node1="16" node2="2"/>
                <iidm:internalConnection node1="17" node2="4"/>
                <iidm:internalConnection node1="18" node2="5"/>
                <iidm:internalConnection node1="19" node2="7"/>
                <iidm:internalConnection node1="20" node2="8"/>
                <iidm:internalConnection node1="21" node2="10"/>
                <iidm:internalConnection node1="22" node2="11"/>
                <iidm:internalConnection node1="23" node2="0"/>
                <iidm:internalConnection node1="24" node2="1"/>
                <iidm:internalConnection node1="25" node2="2"/>
                <iidm:internalConnection node1="26" node2="3"/>
                <iidm:internalConnection node1="27" node2="0"/>
                <iidm:internalConnection node1="28" node2="4"/>
                <iidm:internalConnection node1="29" node2="5"/>
                <iidm:internalConnection node1="30" node2="6"/>
                <iidm:internalConnection node1="31" node2="0"/>
                <iidm:internalConnection node1="32" node2="7"/>
                <iidm:internalConnection node1="33" node2="8"/>
                <iidm:internalConnection node1="34" node2="9"/>
                <iidm:internalConnection node1="35" node2="0"/>
                <iidm:internalConnection node1="36" node2="10"/>
                <iidm:internalConnection node1="37" node2="11"/>
                <iidm:internalConnection node1="38" node2="12"/>
                <iidm:internalConnection node1="39" node2="3"/>
                <iidm:internalConnection node1="40" node2="6"/>
                <iidm:internalConnection node1="41" node2="9"/>
                <iidm:internalConnection node1="42" node2="12"/>
                <iidm:bus v="221.1" angle="-2.31989479" nodes="0,1,2,3,4,5,6,7,8,9,10,11,12,13,14,15,16,17,18,19,20,21,22,23,24,25,26,27,28,29,30,31,32,33,34,35,36,37,38,39,40,41,42"/>
            </iidm:nodeBreakerTopology>
            <iidm:generator id="_0458ddf1-c766-11e1-8775-005056c00008" name="Muskngum SM" energySource="THERMAL" minP="200.0" maxP="400.0" ratedS="500.0" voltageRegulatorOn="true" targetP="391.0" targetV="221.1" targetQ="0.0" node="14" p="-391.0" q="-0.0">
                <iidm:property name="CGMES.GeneratingUnit" value="_5036c3a5-56f9-489c-9ecb-8c15aa7c70c5"/>
                <iidm:property name="CGMES.RegulatingControl" value="_12b01822-ca11-4cf8-a6b4-2f8ff805ca20"/>
                <iidm:minMaxReactiveLimits minQ="-150.0" maxQ="450.0"/>
            </iidm:generator>
        </iidm:voltageLevel>
        <iidm:twoWindingsTransformer id="_045cae83-c766-11e1-8775-005056c00008" name="65-66" r="0.0" x="6.44688" g="0.0" b="0.0" ratedU1="220.0" ratedU2="132.0" node1="42" voltageLevelId1="_0463da78-c766-11e1-8775-005056c00008" node2="53" voltageLevelId2="_047147f4-c766-11e1-8775-005056c00008">
            <iidm:ratioTapChanger lowTapPosition="1" tapPosition="1" loadTapChangingCapabilities="false">
                <iidm:step r="0.0" x="0.0" g="0.0" b="0.0" rho="1.06951871657754"/>
                <iidm:step r="0.0" x="0.0" g="0.0" b="0.0" rho="1.0"/>
                <iidm:step r="0.0" x="0.0" g="0.0" b="0.0" rho="0.9389671361502347"/>
                <iidm:step r="0.0" x="0.0" g="0.0" b="0.0" rho="0.8849557522123894"/>
                <iidm:step r="0.0" x="0.0" g="0.0" b="0.0" rho="0.8368200836820083"/>
                <iidm:step r="0.0" x="0.0" g="0.0" b="0.0" rho="0.7936507936507936"/>
                <iidm:step r="0.0" x="0.0" g="0.0" b="0.0" rho="0.7547169811320755"/>
                <iidm:step r="0.0" x="0.0" g="0.0" b="0.0" rho="0.7194244604316546"/>
                <iidm:step r="0.0" x="0.0" g="0.0" b="0.0" rho="0.6872852233676976"/>
                <iidm:step r="0.0" x="0.0" g="0.0" b="0.0" rho="0.6578947368421053"/>
                <iidm:step r="0.0" x="0.0" g="0.0" b="0.0" rho="0.6309148264984227"/>
                <iidm:step r="0.0" x="0.0" g="0.0" b="0.0" rho="0.6060606060606061"/>
                <iidm:step r="0.0" x="0.0" g="0.0" b="0.0" rho="0.5830903790087463"/>
            </iidm:ratioTapChanger>
            <iidm:currentLimits1 permanentLimit="1312.0">
                <iidm:temporaryLimit name="_069c77f0-1cf0-491a-ae17-8f71e0c7cc0b" acceptableDuration="900" value="1508.0"/>
                <iidm:temporaryLimit name="_a7b7f7b8-4ee3-45f5-ba3e-edb3678e0866" acceptableDuration="60" value="1837.0"/>
            </iidm:currentLimits1>
            <iidm:currentLimits2 permanentLimit="2186.0">
                <iidm:temporaryLimit name="_85b581c6-1005-4dc0-a758-ad5cfa9b05c4" acceptableDuration="900" value="2514.0"/>
                <iidm:temporaryLimit name="_981fee8c-aaa5-4946-b2d2-292bb3a4e7df" acceptableDuration="60" value="3061.0"/>
            </iidm:currentLimits2>
        </iidm:twoWindingsTransformer>
    </iidm:substation>
    <iidm:substation id="_04773b6b-c766-11e1-8775-005056c00008" name="Fornost Erain" country="GB" geographicalTags="_0472a781-c766-11e1-8775-005056c00008">
        <iidm:voltageLevel id="_046b2d70-c766-11e1-8775-005056c00008" name="FOR132KV" nominalV="132.0" topologyKind="NODE_BREAKER">
            <iidm:nodeBreakerTopology>
                <iidm:busbarSection id="_7eb33e86-c88f-4bf3-a7ef-c5088af3b21d" name="BUSBAR75" node="7"></iidm:busbarSection>
                <iidm:switch id="_9dae330d-c249-4b48-89e1-a45e2d670edf" name="BREAKER105" kind="BREAKER" retained="false" open="false" node1="9" node2="10"></iidm:switch>
                <iidm:switch id="_1ec29fa9-2618-47ae-9991-af7d1864a1b6" name="BREAKER304" kind="BREAKER" retained="false" open="false" node1="11" node2="12"></iidm:switch>
                <iidm:switch id="_2351331e-0e33-4a5c-9a82-286cb05371c8" name="DISCONNECTOR209" kind="DISCONNECTOR" retained="false" open="false" node1="13" node2="14"></iidm:switch>
                <iidm:switch id="_d82e0b30-561d-42bc-b2ae-57383a4886d4" name="DISCONNECTOR210" kind="DISCONNECTOR" retained="false" open="false" node1="15" node2="16"></iidm:switch>
                <iidm:switch id="_f8087744-d60a-4cb2-a38a-dc1cb4787121" name="DISCONNECTOR607" kind="DISCONNECTOR" retained="false" open="false" node1="17" node2="18"></iidm:switch>
                <iidm:switch id="_333cabdc-625e-4ad4-85e1-1a4a7750811a" name="DISCONNECTOR608" kind="DISCONNECTOR" retained="false" open="false" node1="19" node2="20"></iidm:switch>
                <iidm:internalConnection node1="7" node2="0"/>
                <iidm:internalConnection node1="8" node2="0"/>
                <iidm:internalConnection node1="9" node2="1"/>
                <iidm:internalConnection node1="10" node2="2"/>
                <iidm:internalConnection node1="11" node2="4"/>
                <iidm:internalConnection node1="12" node2="5"/>
                <iidm:internalConnection node1="13" node2="0"/>
                <iidm:internalConnection node1="14" node2="1"/>
                <iidm:internalConnection node1="15" node2="2"/>
                <iidm:internalConnection node1="16" node2="3"/>
                <iidm:internalConnection node1="17" node2="0"/>
                <iidm:internalConnection node1="18" node2="4"/>
                <iidm:internalConnection node1="19" node2="5"/>
                <iidm:internalConnection node1="20" node2="6"/>
                <iidm:internalConnection node1="21" node2="3"/>
                <iidm:internalConnection node1="22" node2="6"/>
                <iidm:bus v="126.359306" angle="-17.8946" nodes="0,1,2,3,4,5,6,7,8,9,10,11,12,13,14,15,16,17,18,19,20,21,22"/>
            </iidm:nodeBreakerTopology>
            <iidm:load id="_0453d4e2-c766-11e1-8775-005056c00008" name="Adams LD" loadType="UNDEFINED" p0="18.0" q0="3.0" node="8" p="18.0" q="3.0"></iidm:load>
        </iidm:voltageLevel>
    </iidm:substation>
    <iidm:substation id="_04887979-c766-11e1-8775-005056c00008" name="The Wall" country="GB" geographicalTags="_0472a781-c766-11e1-8775-005056c00008">
        <iidm:voltageLevel id="_0475b4c0-c766-11e1-8775-005056c00008" name="THE132KV" nominalV="132.0" topologyKind="NODE_BREAKER">
            <iidm:nodeBreakerTopology>
                <iidm:busbarSection id="_5c6a7604-3cd4-445a-8071-d6715229c086" name="BUSBAR36" node="13"></iidm:busbarSection>
                <iidm:switch id="_2103dd02-ea2e-4f84-9c78-566e6e57e314" name="BREAKER43" kind="BREAKER" retained="false" open="false" node1="16" node2="17"></iidm:switch>
                <iidm:switch id="_13b62ac4-1cf7-41fb-aba1-9c00ed4945dc" name="BREAKER111" kind="BREAKER" retained="false" open="false" node1="18" node2="19"></iidm:switch>
                <iidm:switch id="_66e9eea4-514e-440a-8aac-02094bed0a5d" name="BREAKER223" kind="BREAKER" retained="false" open="false" node1="20" node2="21"></iidm:switch>
                <iidm:switch id="_23ebffc9-e9f4-475f-8828-cd81a5a4ee9d" name="BREAKER328" kind="BREAKER" retained="false" open="false" node1="22" node2="23"></iidm:switch>
                <iidm:switch id="_2a6cd569-217c-4cfa-964a-2d6a54dbc26e" name="DISCONNECTOR85" kind="DISCONNECTOR" retained="false" open="false" node1="24" node2="25"></iidm:switch>
                <iidm:switch id="_409f80dd-085b-435a-a94b-e86d127ef69f" name="DISCONNECTOR86" kind="DISCONNECTOR" retained="false" open="false" node1="26" node2="27"></iidm:switch>
                <iidm:switch id="_93e618f3-6609-4db4-890f-3b9d9c32934e" name="DISCONNECTOR221" kind="DISCONNECTOR" retained="false" open="false" node1="28" node2="29"></iidm:switch>
                <iidm:switch id="_e5eca154-c890-46e3-96dc-c152abb9f263" name="DISCONNECTOR222" kind="DISCONNECTOR" retained="false" open="false" node1="30" node2="31"></iidm:switch>
                <iidm:switch id="_c860c713-f00f-4210-b66e-c6372220892a" name="DISCONNECTOR445" kind="DISCONNECTOR" retained="false" open="false" node1="32" node2="33"></iidm:switch>
                <iidm:switch id="_df7141a0-91ba-494b-8c5a-a9028e895b01" name="DISCONNECTOR446" kind="DISCONNECTOR" retained="false" open="false" node1="34" node2="35"></iidm:switch>
                <iidm:switch id="_6879c025-ef1c-4d7e-b125-0d4c99f507b1" name="DISCONNECTOR655" kind="DISCONNECTOR" retained="false" open="false" node1="36" node2="37"></iidm:switch>
                <iidm:switch id="_3f18d24c-4852-46c5-8b17-89dfc5436076" name="DISCONNECTOR656" kind="DISCONNECTOR" retained="false" open="false" node1="38" node2="39"></iidm:switch>
                <iidm:internalConnection node1="13" node2="0"/>
                <iidm:internalConnection node1="14" node2="0"/>
                <iidm:internalConnection node1="15" node2="0"/>
                <iidm:internalConnection node1="16" node2="1"/>
                <iidm:internalConnection node1="17" node2="2"/>
                <iidm:internalConnection node1="18" node2="4"/>
                <iidm:internalConnection node1="19" node2="5"/>
                <iidm:internalConnection node1="20" node2="7"/>
                <iidm:internalConnection node1="21" node2="8"/>
                <iidm:internalConnection node1="22" node2="10"/>
                <iidm:internalConnection node1="23" node2="11"/>
                <iidm:internalConnection node1="24" node2="0"/>
                <iidm:internalConnection node1="25" node2="1"/>
                <iidm:internalConnection node1="26" node2="2"/>
                <iidm:internalConnection node1="27" node2="3"/>
                <iidm:internalConnection node1="28" node2="0"/>
                <iidm:internalConnection node1="29" node2="4"/>
                <iidm:internalConnection node1="30" node2="5"/>
                <iidm:internalConnection node1="31" node2="6"/>
                <iidm:internalConnection node1="32" node2="0"/>
                <iidm:internalConnection node1="33" node2="7"/>
                <iidm:internalConnection node1="34" node2="8"/>
                <iidm:internalConnection node1="35" node2="9"/>
                <iidm:internalConnection node1="36" node2="0"/>
                <iidm:internalConnection node1="37" node2="10"/>
                <iidm:internalConnection node1="38" node2="11"/>
                <iidm:internalConnection node1="39" node2="12"/>
                <iidm:internalConnection node1="40" node2="3"/>
                <iidm:internalConnection node1="41" node2="6"/>
                <iidm:internalConnection node1="42" node2="9"/>
                <iidm:internalConnection node1="43" node2="12"/>
                <iidm:bus v="133.319992" angle="-5.7111764" nodes="0,1,2,3,4,5,6,7,8,9,10,11,12,13,14,15,16,17,18,19,20,21,22,23,24,25,26,27,28,29,30,31,32,33,34,35,36,37,38,39,40,41,42,43"/>
            </iidm:nodeBreakerTopology>
            <iidm:generator id="_046bf0c4-c766-11e1-8775-005056c00008" name="Claytor SM" energySource="THERMAL" minP="0.0" maxP="160.0" ratedS="200.0" voltageRegulatorOn="true" targetP="40.0" targetV="133.319992" targetQ="0.0" node="15" p="-40.0" q="-0.0">
                <iidm:property name="CGMES.GeneratingUnit" value="_e56da2eb-bb6a-4133-953c-40073c5bc5f4"/>
...